
 ===================================================
  XFOIL Version 6.99
  Copyright (C) 2000   Mark Drela, Harold Youngren

  This software comes with ABSOLUTELY NO WARRANTY,
    subject to the GNU General Public License.

  Caveat computor
 ===================================================

 File  xfoil.def  not found

   QUIT    Exit program

  .OPER    Direct operating point(s)
  .MDES    Complex mapping design routine
  .QDES    Surface speed design routine
  .GDES    Geometry design routine

   SAVE f  Write airfoil to labeled coordinate file
   PSAV f  Write airfoil to plain coordinate file
   ISAV f  Write airfoil to ISES coordinate file
   MSAV f  Write airfoil to MSES coordinate file
   REVE    Reverse written-airfoil node ordering
   DELI i  Change written-airfoil file delimiters

   LOAD f  Read buffer airfoil from coordinate file
   NACA i  Set NACA 4,5-digit airfoil and buffer airfoil
   INTE    Set buffer airfoil by interpolating two airfoils
   NORM    Buffer airfoil normalization toggle
   HALF    Halve the number of points in buffer airfoil
   XYCM rr Change CM reference location, currently  0.25000 0.00000

   BEND    Display structural properties of current airfoil

   PCOP    Set current-airfoil panel nodes directly from buffer airfoil points
   PANE    Set current-airfoil panel nodes ( 160 ) based on curvature
  .PPAR    Show/change paneling

  .PLOP    Plotting options

   WDEF f  Write  current-settings file
   RDEF f  Reread current-settings file
   NAME s  Specify new airfoil name
   NINC    Increment name version number

   Z       Zoom    | (available in all menus)
   U       Unzoom  | 

 XFOIL   c>  
 Labeled airfoil file.  Name:  utest_0                                         

 Number of input coordinate points: 201
 Counterclockwise ordering
 Max thickness =     0.164582  at x =   0.332
 Max camber    =     0.054602  at x =   0.647

  LE  x,y  =  -0.00000   0.00002  |   Chord =   1.00000
  TE  x,y  =   1.00000   0.00000  |

 Current airfoil nodes set from buffer airfoil nodes ( 201 )

 XFOIL   c>  
.OPERi   c>   Calculating unit vorticity distributions ...

.OPERi   c>  
 M  =    0.0000 / sqrt(CL)
 Re =   0.000     / sqrt(CL)

.OPERi   c>  
 X-window size changed to  11.00" x  5.55"

.OPERi   c>  
 M  =    0.0000 / sqrt(CL)
 Re =  0.1000E+07 / sqrt(CL)

.OPERv   c>  
 Sonic Cp =    -16.31      Sonic Q/Qinf =     4.583


.OPERv   c>  
 Polar  1 newly created for accumulation
 Airfoil archived with polar: utest_0                                         

Enter  polar save filename  OR  <return> for no file   s>  
 Old polar save file read in ...
  
       XFOIL                                                    Version 6.99
  
 Calculated polar for: utest_0                                         
  
 2 2 Reynolds number ~ 1/sqrt(CL)   Mach number ~ 1/sqrt(CL)  
  
 xtrf =   1.000 (top)        1.000 (bottom)  
 Mach =   0.200     Re =     1.000 e 6     Ncrit =   9.000  9.000
  
   alpha    CL        CD       CDp       CM     Top_Xtr  Bot_Xtr  Top_Itr  Bot_Itr
  ------ -------- --------- --------- -------- -------- -------- -------- --------

 Old polar save file available for appending

Enter  polar dump filename  OR  <return> for no file   s>  
 Polar dump file will NOT be written

 Polar accumulation enabled

.OPERva   c>  
 CPCALC: Local speed too large. Compressibility corrections invalid.

 CPCALC: Local speed too large. Compressibility corrections invalid.

 CPCALC: Local speed too large. Compressibility corrections invalid.
 Calculating wake trajectory ...
 Calculating source influence matrix ...

 Solving BL system ...

 Initializing BL ...
    side            1  ...
 MRCHUE: Inverse mode at  48     Hk =   5.471
 MRCHUE: Inverse mode at  49     Hk =   7.625
 MRCHUE: Inverse mode at  50     Hk =   2.500
 MRCHUE: Inverse mode at  76     Hk =   2.500
 MRCHUE: Inverse mode at  77     Hk =   2.500
 MRCHUE: Inverse mode at  78     Hk =   2.500
 MRCHUE: Inverse mode at  79     Hk =   2.500
 MRCHUE: Inverse mode at  80     Hk =   2.500
 MRCHUE: Inverse mode at  81     Hk =   2.500
 MRCHUE: Inverse mode at  82     Hk =   2.500
